data/ENWL/enwl_kron_reduced/network_5/Feeder_5/Loads.txt
! Imported from Loads.txt, with modified neutral terminal
! --------------------------------------------------------------------------
New Load.LOAD1 Phases=1 Bus1=48.1 kV=0.23 kW=1.968  PF=0.95
New Load.LOAD2 Phases=1 Bus1=53.2 kV=0.23 kW=0.306  PF=0.95
New Load.LOAD3 Phases=1 Bus1=251.3 kV=0.23 kW=2.94  PF=0.95
New Load.LOAD4 Phases=1 Bus1=262.1 kV=0.23 kW=0.324  PF=0.95
New Load.LOAD5 Phases=1 Bus1=273.1 kV=0.23 kW=1.332  PF=0.95
New Load.LOAD6 Phases=1 Bus1=280.2 kV=0.23 kW=3.0540000000000003  PF=0.95
New Load.LOAD7 Phases=1 Bus1=284.1 kV=0.23 kW=2.0580000000000003  PF=0.95
New Load.LOAD8 Phases=1 Bus1=315.3 kV=0.23 kW=0.29400000000000004  PF=0.95
New Load.LOAD9 Phases=1 Bus1=325.3 kV=0.23 kW=0.312  PF=0.95
New Load.LOAD10 Phases=1 Bus1=347.3 kV=0.23 kW=0.27  PF=0.95
New Load.LOAD11 Phases=1 Bus1=360.2 kV=0.23 kW=0.33  PF=0.95
New Load.LOAD12 Phases=1 Bus1=377.3 kV=0.23 kW=0.33  PF=0.95
New Load.LOAD13 Phases=1 Bus1=394.3 kV=0.23 kW=0.246  PF=0.95
New Load.LOAD14 Phases=1 Bus1=516.3 kV=0.23 kW=2.04  PF=0.95
New Load.LOAD15 Phases=1 Bus1=538.1 kV=0.23 kW=0.8280000000000001  PF=0.95
New Load.LOAD16 Phases=1 Bus1=551.2 kV=0.23 kW=0.11399999999999999  PF=0.95
New Load.LOAD17 Phases=1 Bus1=597.1 kV=0.23 kW=0.28800000000000003  PF=0.95
New Load.LOAD18 Phases=1 Bus1=615.2 kV=0.23 kW=0.324  PF=0.95
New Load.LOAD19 Phases=1 Bus1=621.1 kV=0.23 kW=1.944  PF=0.95
New Load.LOAD20 Phases=1 Bus1=645.1 kV=0.23 kW=0.264  PF=0.95
New Load.LOAD21 Phases=1 Bus1=663.2 kV=0.23 kW=0.336  PF=0.95
New Load.LOAD22 Phases=1 Bus1=667.1 kV=0.23 kW=0.966  PF=0.95
New Load.LOAD23 Phases=1 Bus1=676.2 kV=0.23 kW=0.246  PF=0.95
New Load.LOAD24 Phases=1 Bus1=688.1 kV=0.23 kW=1.956  PF=0.95
New Load.LOAD25 Phases=1 Bus1=707.3 kV=0.23 kW=0.29400000000000004  PF=0.95
New Load.LOAD26 Phases=1 Bus1=734.3 kV=0.23 kW=0.336  PF=0.95
New Load.LOAD27 Phases=1 Bus1=741.2 kV=0.23 kW=0.27  PF=0.95
New Load.LOAD28 Phases=1 Bus1=742.1 kV=0.23 kW=0.276  PF=0.95
New Load.LOAD29 Phases=1 Bus1=743.2 kV=0.23 kW=0.34800000000000003  PF=0.95
New Load.LOAD30 Phases=1 Bus1=744.2 kV=0.23 kW=0.264  PF=0.95
New Load.LOAD31 Phases=1 Bus1=747.1 kV=0.23 kW=0.28200000000000003  PF=0.95
New Load.LOAD32 Phases=1 Bus1=759.3 kV=0.23 kW=0.342  PF=0.95
New Load.LOAD33 Phases=1 Bus1=776.1 kV=0.23 kW=0.28800000000000003  PF=0.95
New Load.LOAD34 Phases=1 Bus1=779.1 kV=0.23 kW=2.748  PF=0.95
New Load.LOAD35 Phases=1 Bus1=780.1 kV=0.23 kW=0.9612  PF=0.95
New Load.LOAD36 Phases=1 Bus1=820.2 kV=0.23 kW=0.318  PF=0.95
New Load.LOAD37 Phases=1 Bus1=918.1 kV=0.23 kW=0.28200000000000003  PF=0.95
New Load.LOAD38 Phases=1 Bus1=919.1 kV=0.23 kW=0.276  PF=0.95
New Load.LOAD39 Phases=1 Bus1=940.3 kV=0.23 kW=9.738  PF=0.95
New Load.LOAD40 Phases=1 Bus1=967.2 kV=0.23 kW=0.28800000000000003  PF=0.95
New Load.LOAD41 Phases=1 Bus1=1019.1 kV=0.23 kW=0.28800000000000003  PF=0.95
New Load.LOAD42 Phases=1 Bus1=1027.1 kV=0.23 kW=0.15000000000000002  PF=0.95
New Load.LOAD43 Phases=1 Bus1=1066.2 kV=0.23 kW=0.318  PF=0.95
New Load.LOAD44 Phases=1 Bus1=1091.1 kV=0.23 kW=1.8719999999999999  PF=0.95
New Load.LOAD45 Phases=1 Bus1=1098.2 kV=0.23 kW=5.586  PF=0.95
New Load.LOAD46 Phases=1 Bus1=1108.3 kV=0.23 kW=0.336  PF=0.95
New Load.LOAD47 Phases=1 Bus1=1132.2 kV=0.23 kW=0.354  PF=0.95
New Load.LOAD48 Phases=1 Bus1=1160.1 kV=0.23 kW=0.21599999999999997  PF=0.95
New Load.LOAD49 Phases=1 Bus1=1173.2 kV=0.23 kW=0.324  PF=0.95
! --------------------------------------------------------------------------